<?xml version="1.0" encoding="UTF-8"?>
<net version="1.9" xmlns:xsi="http://www.w3.org/2001/XMLSchema-instance" junctionCornerDetail="5">
    <location netOffset="0.00,0.00" convBoundary="0.00,0.00,100.00,0.00" origBoundary="-10000000000.00,-10000000000.00,10000000000.00,10000000000.00" projParameter="!"/>
    
    <!-- Main road -->
    <edge id="road" from="west" to="east" priority="1">
        <lane id="road_0" index="0" speed="13.89" length="100.00" width="3.20" shape="0.00,0.00 100.00,0.00"/>
    </edge>
    
    <!-- Junction definitions -->
    <junction id="west" type="dead_end" x="0.00" y="0.00" incLanes="" intLanes="" shape="0.00,1.60 0.00,-1.60"/>
    <junction id="east" type="dead_end" x="100.00" y="0.00" incLanes="road_0" intLanes="" shape="100.00,-1.60 100.00,1.60"/>
</net>