<?xml version="1.0" encoding="UTF-8"?>
<routes xmlns:xsi="http://www.w3.org/2001/XMLSchema-instance" xsi:noNamespaceSchemaLocation="http://sumo.dlr.de/xsd/routes_file.xsd">
    <vType id="car" accel="3.0" decel="6.0" length="5.0" minGap="2.5" maxSpeed="16.67" sigma="0.5"/>
    
    <!-- Define routes -->
    <route id="northbound" edges="S2C C2N"/>
    <route id="southbound" edges="N2C C2S"/>
    
    <!-- Define flows -->
    <flow id="flow_northbound" type="car" route="northbound" begin="0" end="1000" probability="0.3"/>
    <flow id="flow_southbound" type="car" route="southbound" begin="0" end="1000" probability="0.3"/>
</routes>