<edges>
    <!-- TAZ Connector Edges -->
    <!-- TAZ1: Southwest Corner -->
    <edge id="source_TAZ1" from="source_TAZ1_node" to="N0_100" type="minor_road"/>
    <edge id="sink_TAZ1" from="N100_0" to="sink_TAZ1_node" type="minor_road"/>

    <!-- TAZ2: Southeast Corner -->
    <edge id="source_TAZ2" from="source_TAZ2_node" to="N900_100" type="minor_road"/>
    <edge id="sink_TAZ2" from="N800_0" to="sink_TAZ2_node" type="minor_road"/>

    <!-- TAZ3: Northwest Corner -->
    <edge id="source_TAZ3" from="source_TAZ3_node" to="N0_600" type="minor_road"/>
    <edge id="sink_TAZ3" from="N100_700" to="sink_TAZ3_node" type="minor_road"/>

    <!-- TAZ4: Northeast Corner -->
    <edge id="source_TAZ4" from="source_TAZ4_node" to="N900_600" type="minor_road"/>
    <edge id="sink_TAZ4" from="N800_700" to="sink_TAZ4_node" type="minor_road"/>


    <edge id="E0_0_to_100_0" from="N0_0" to="N100_0" type="minor_road"/>
    <edge id="E100_0_to_200_0" from="N100_0" to="N200_0" type="minor_road"/>
    <edge id="E200_0_to_300_0" from="N200_0" to="N300_0" type="minor_road"/>
    <edge id="E300_0_to_400_0" from="N300_0" to="N400_0" type="minor_road"/>
    <edge id="E400_0_to_500_0" from="N400_0" to="N500_0" type="minor_road"/>
    <edge id="E500_0_to_600_0" from="N500_0" to="N600_0" type="minor_road"/>
    <edge id="E600_0_to_700_0" from="N600_0" to="N700_0" type="minor_road"/>
    <edge id="E700_0_to_800_0" from="N700_0" to="N800_0" type="minor_road"/>
    <edge id="E800_0_to_900_0" from="N800_0" to="N900_0" type="minor_road"/>
    <edge id="E0_100_to_100_100" from="N0_100" to="N100_100" type="minor_road"/>
    <edge id="E100_100_to_200_100" from="N100_100" to="N200_100" type="minor_road"/>
    <edge id="E200_100_to_300_100" from="N200_100" to="N300_100" type="minor_road"/>
    <edge id="E300_100_to_400_100" from="N300_100" to="N400_100" type="minor_road"/>
    <edge id="E400_100_to_500_100" from="N400_100" to="N500_100" type="minor_road"/>
    <edge id="E500_100_to_600_100" from="N500_100" to="N600_100" type="minor_road"/>
    <edge id="E600_100_to_700_100" from="N600_100" to="N700_100" type="minor_road"/>
    <edge id="E700_100_to_800_100" from="N700_100" to="N800_100" type="minor_road"/>
    <edge id="E800_100_to_900_100" from="N800_100" to="N900_100" type="minor_road"/>
    <edge id="E0_200_to_100_200" from="N0_200" to="N100_200" type="secondary_road"/>
    <edge id="E100_200_to_200_200" from="N100_200" to="N200_200" type="secondary_road"/>
    <edge id="E200_200_to_300_200" from="N200_200" to="N300_200" type="secondary_road"/>
    <edge id="E300_200_to_400_200" from="N300_200" to="N400_200" type="secondary_road"/>
    <edge id="E400_200_to_500_200" from="N400_200" to="N500_200" type="secondary_road"/>
    <edge id="E500_200_to_600_200" from="N500_200" to="N600_200" type="secondary_road"/>
    <edge id="E600_200_to_700_200" from="N600_200" to="N700_200" type="secondary_road"/>
    <edge id="E700_200_to_800_200" from="N700_200" to="N800_200" type="secondary_road"/>
    <edge id="E800_200_to_900_200" from="N800_200" to="N900_200" type="secondary_road"/>
    <edge id="E0_300_to_100_300" from="N0_300" to="N100_300" type="minor_road"/>
    <edge id="E100_300_to_200_300" from="N100_300" to="N200_300" type="minor_road"/>
    <edge id="E200_300_to_300_300" from="N200_300" to="N300_300" type="minor_road"/>
    <edge id="E300_300_to_400_300" from="N300_300" to="N400_300" type="minor_road"/>
    <edge id="E400_300_to_500_300" from="N400_300" to="N500_300" type="minor_road"/>
    <edge id="E500_300_to_600_300" from="N500_300" to="N600_300" type="minor_road"/>
    <edge id="E600_300_to_700_300" from="N600_300" to="N700_300" type="minor_road"/>
    <edge id="E700_300_to_800_300" from="N700_300" to="N800_300" type="minor_road"/>
    <edge id="E800_300_to_900_300" from="N800_300" to="N900_300" type="minor_road"/>
    <edge id="E0_400_to_100_400" from="N0_400" to="N100_400" type="major_arterial"/>
    <edge id="E100_400_to_200_400" from="N100_400" to="N200_400" type="major_arterial"/>
    <edge id="E200_400_to_300_400" from="N200_400" to="N300_400" type="major_arterial"/>
    <edge id="E300_400_to_400_400" from="N300_400" to="N400_400" type="major_arterial"/>
    <edge id="E400_400_to_500_400" from="N400_400" to="N500_400" type="major_arterial"/>
    <edge id="E500_400_to_600_400" from="N500_400" to="N600_400" type="major_arterial"/>
    <edge id="E600_400_to_700_400" from="N600_400" to="N700_400" type="major_arterial"/>
    <edge id="E700_400_to_800_400" from="N700_400" to="N800_400" type="major_arterial"/>
    <edge id="E800_400_to_900_400" from="N800_400" to="N900_400" type="major_arterial"/>
    <edge id="E0_500_to_100_500" from="N0_500" to="N100_500" type="minor_road"/>
    <edge id="E100_500_to_200_500" from="N100_500" to="N200_500" type="minor_road"/>
    <edge id="E200_500_to_300_500" from="N200_500" to="N300_500" type="minor_road"/>
    <edge id="E300_500_to_400_500" from="N300_500" to="N400_500" type="minor_road"/>
    <edge id="E400_500_to_500_500" from="N400_500" to="N500_500" type="minor_road"/>
    <edge id="E500_500_to_600_500" from="N500_500" to="N600_500" type="minor_road"/>
    <edge id="E600_500_to_700_500" from="N600_500" to="N700_500" type="minor_road"/>
    <edge id="E700_500_to_800_500" from="N700_500" to="N800_500" type="minor_road"/>
    <edge id="E800_500_to_900_500" from="N800_500" to="N900_500" type="minor_road"/>
    <edge id="E0_600_to_100_600" from="N0_600" to="N100_600" type="secondary_road"/>
    <edge id="E100_600_to_200_600" from="N100_600" to="N200_600" type="secondary_road"/>
    <edge id="E200_600_to_300_600" from="N200_600" to="N300_600" type="secondary_road"/>
    <edge id="E300_600_to_400_600" from="N300_600" to="N400_600" type="secondary_road"/>
    <edge id="E400_600_to_500_600" from="N400_600" to="N500_600" type="secondary_road"/>
    <edge id="E500_600_to_600_600" from="N500_600" to="N600_600" type="secondary_road"/>
    <edge id="E600_600_to_700_600" from="N600_600" to="N700_600" type="secondary_road"/>
    <edge id="E700_600_to_800_600" from="N700_600" to="N800_600" type="secondary_road"/>
    <edge id="E800_600_to_900_600" from="N800_600" to="N900_600" type="secondary_road"/>
    <edge id="E0_700_to_100_700" from="N0_700" to="N100_700" type="minor_road"/>
    <edge id="E100_700_to_200_700" from="N100_700" to="N200_700" type="minor_road"/>
    <edge id="E200_700_to_300_700" from="N200_700" to="N300_700" type="minor_road"/>
    <edge id="E300_700_to_400_700" from="N300_700" to="N400_700" type="minor_road"/>
    <edge id="E400_700_to_500_700" from="N400_700" to="N500_700" type="minor_road"/>
    <edge id="E500_700_to_600_700" from="N500_700" to="N600_700" type="minor_road"/>
    <edge id="E600_700_to_700_700" from="N600_700" to="N700_700" type="minor_road"/>
    <edge id="E700_700_to_800_700" from="N700_700" to="N800_700" type="minor_road"/>
    <edge id="E800_700_to_900_700" from="N800_700" to="N900_700" type="minor_road"/>
    <edge id="E0_800_to_100_800" from="N0_800" to="N100_800" type="minor_road"/>
    <edge id="E100_800_to_200_800" from="N100_800" to="N200_800" type="minor_road"/>
    <edge id="E200_800_to_300_800" from="N200_800" to="N300_800" type="minor_road"/>
    <edge id="E300_800_to_400_800" from="N300_800" to="N400_800" type="minor_road"/>
    <edge id="E400_800_to_500_800" from="N400_800" to="N500_800" type="minor_road"/>
    <edge id="E500_800_to_600_800" from="N500_800" to="N600_800" type="minor_road"/>
    <edge id="E600_800_to_700_800" from="N600_800" to="N700_800" type="minor_road"/>
    <edge id="E700_800_to_800_800" from="N700_800" to="N800_800" type="minor_road"/>
    <edge id="E800_800_to_900_800" from="N800_800" to="N900_800" type="minor_road"/>
    <edge id="E0_0_to_0_100" from="N0_0" to="N0_100" type="minor_road"/>
    <edge id="E0_100_to_0_200" from="N0_100" to="N0_200" type="minor_road"/>
    <edge id="E0_200_to_0_300" from="N0_200" to="N0_300" type="minor_road"/>
    <edge id="E0_300_to_0_400" from="N0_300" to="N0_400" type="minor_road"/>
    <edge id="E0_400_to_0_500" from="N0_400" to="N0_500" type="minor_road"/>
    <edge id="E0_500_to_0_600" from="N0_500" to="N0_600" type="minor_road"/>
    <edge id="E0_600_to_0_700" from="N0_600" to="N0_700" type="minor_road"/>
    <edge id="E100_0_to_100_100" from="N100_0" to="N100_100" type="minor_road"/>
    <edge id="E100_100_to_100_200" from="N100_100" to="N100_200" type="minor_road"/>
    <edge id="E100_200_to_100_300" from="N100_200" to="N100_300" type="minor_road"/>
    <edge id="E100_300_to_100_400" from="N100_300" to="N100_400" type="minor_road"/>
    <edge id="E100_400_to_100_500" from="N100_400" to="N100_500" type="minor_road"/>
    <edge id="E100_500_to_100_600" from="N100_500" to="N100_600" type="minor_road"/>
    <edge id="E100_600_to_100_700" from="N100_600" to="N100_700" type="minor_road"/>
    <edge id="E200_0_to_200_100" from="N200_0" to="N200_100" type="secondary_road"/>
    <edge id="E200_100_to_200_200" from="N200_100" to="N200_200" type="secondary_road"/>
    <edge id="E200_200_to_200_300" from="N200_200" to="N200_300" type="secondary_road"/>
    <edge id="E200_300_to_200_400" from="N200_300" to="N200_400" type="secondary_road"/>
    <edge id="E200_400_to_200_500" from="N200_400" to="N200_500" type="secondary_road"/>
    <edge id="E200_500_to_200_600" from="N200_500" to="N200_600" type="secondary_road"/>
    <edge id="E200_600_to_200_700" from="N200_600" to="N200_700" type="secondary_road"/>
    <edge id="E300_0_to_300_100" from="N300_0" to="N300_100" type="minor_road"/>
    <edge id="E300_100_to_300_200" from="N300_100" to="N300_200" type="minor_road"/>
    <edge id="E300_200_to_300_300" from="N300_200" to="N300_300" type="minor_road"/>
    <edge id="E300_300_to_300_400" from="N300_300" to="N300_400" type="minor_road"/>
    <edge id="E300_400_to_300_500" from="N300_400" to="N300_500" type="minor_road"/>
    <edge id="E300_500_to_300_600" from="N300_500" to="N300_600" type="minor_road"/>
    <edge id="E300_600_to_300_700" from="N300_600" to="N300_700" type="minor_road"/>
    <edge id="E400_0_to_400_100" from="N400_0" to="N400_100" type="minor_road"/>
    <edge id="E400_100_to_400_200" from="N400_100" to="N400_200" type="minor_road"/>
    <edge id="E400_200_to_400_300" from="N400_200" to="N400_300" type="minor_road"/>
    <edge id="E400_300_to_400_400" from="N400_300" to="N400_400" type="minor_road"/>
    <edge id="E400_400_to_400_500" from="N400_400" to="N400_500" type="minor_road"/>
    <edge id="E400_500_to_400_600" from="N400_500" to="N400_600" type="minor_road"/>
    <edge id="E400_600_to_400_700" from="N400_600" to="N400_700" type="minor_road"/>
    <edge id="E500_0_to_500_100" from="N500_0" to="N500_100" type="major_arterial"/>
    <edge id="E500_100_to_500_200" from="N500_100" to="N500_200" type="major_arterial"/>
    <edge id="E500_200_to_500_300" from="N500_200" to="N500_300" type="major_arterial"/>
    <edge id="E500_300_to_500_400" from="N500_300" to="N500_400" type="major_arterial"/>
    <edge id="E500_400_to_500_500" from="N500_400" to="N500_500" type="major_arterial"/>
    <edge id="E500_500_to_500_600" from="N500_500" to="N500_600" type="major_arterial"/>
    <edge id="E500_600_to_500_700" from="N500_600" to="N500_700" type="major_arterial"/>
    <edge id="E600_0_to_600_100" from="N600_0" to="N600_100" type="minor_road"/>
    <edge id="E600_100_to_600_200" from="N600_100" to="N600_200" type="minor_road"/>
    <edge id="E600_200_to_600_300" from="N600_200" to="N600_300" type="minor_road"/>
    <edge id="E600_300_to_600_400" from="N600_300" to="N600_400" type="minor_road"/>
    <edge id="E600_400_to_600_500" from="N600_400" to="N600_500" type="minor_road"/>
    <edge id="E600_500_to_600_600" from="N600_500" to="N600_600" type="minor_road"/>
    <edge id="E600_600_to_600_700" from="N600_600" to="N600_700" type="minor_road"/>
    <edge id="E700_0_to_700_100" from="N700_0" to="N700_100" type="minor_road"/>
    <edge id="E700_100_to_700_200" from="N700_100" to="N700_200" type="minor_road"/>
    <edge id="E700_200_to_700_300" from="N700_200" to="N700_300" type="minor_road"/>
    <edge id="E700_300_to_700_400" from="N700_300" to="N700_400" type="minor_road"/>
    <edge id="E700_400_to_700_500" from="N700_400" to="N700_500" type="minor_road"/>
    <edge id="E700_500_to_700_600" from="N700_500" to="N700_600" type="minor_road"/>
    <edge id="E700_600_to_700_700" from="N700_600" to="N700_700" type="minor_road"/>
    <edge id="E800_0_to_800_100" from="N800_0" to="N800_100" type="secondary_road"/>
    <edge id="E800_100_to_800_200" from="N800_100" to="N800_200" type="secondary_road"/>
    <edge id="E800_200_to_800_300" from="N800_200" to="N800_300" type="secondary_road"/>
    <edge id="E800_300_to_800_400" from="N800_300" to="N800_400" type="secondary_road"/>
    <edge id="E800_400_to_800_500" from="N800_400" to="N800_500" type="secondary_road"/>
    <edge id="E800_500_to_800_600" from="N800_500" to="N800_600" type="secondary_road"/>
    <edge id="E800_600_to_800_700" from="N800_600" to="N800_700" type="secondary_road"/>
    <edge id="E900_0_to_900_100" from="N900_0" to="N900_100" type="minor_road"/>
    <edge id="E900_100_to_900_200" from="N900_100" to="N900_200" type="minor_road"/>
    <edge id="E900_200_to_900_300" from="N900_200" to="N900_300" type="minor_road"/>
    <edge id="E900_300_to_900_400" from="N900_300" to="N900_400" type="minor_road"/>
    <edge id="E900_400_to_900_500" from="N900_400" to="N900_500" type="minor_road"/>
    <edge id="E900_500_to_900_600" from="N900_500" to="N900_600" type="minor_road"/>
    <edge id="E900_600_to_900_700" from="N900_600" to="N900_700" type="minor_road"/>
</edges>
