<?xml version="1.0" encoding="UTF-8"?>

<!-- generated on 2024-11-06 20:14:02 by Eclipse SUMO netconvert Version 1.20.0
<configuration xmlns:xsi="http://www.w3.org/2001/XMLSchema-instance" xsi:noNamespaceSchemaLocation="http://sumo.dlr.de/xsd/netconvertConfiguration.xsd">

    <input>
        <node-files value="nodes.nod.xml"/>
        <edge-files value="edges.edg.xml"/>
        <type-files value="road_types.typ.xml"/>
    </input>

    <output>
        <output-file value="simple.net.xml"/>
    </output>

</configuration>
-->

<net version="1.20" junctionCornerDetail="5" limitTurnSpeed="5.50" xmlns:xsi="http://www.w3.org/2001/XMLSchema-instance" xsi:noNamespaceSchemaLocation="http://sumo.dlr.de/xsd/net_file.xsd">

    <location netOffset="100.00,100.00" convBoundary="0.00,0.00,1100.00,900.00" origBoundary="-100.00,-100.00,1000.00,800.00" projParameter="!"/>

    <type id="major_arterial" priority="3" numLanes="3" speed="16.67"/>
    <type id="minor_road" priority="1" numLanes="1" speed="11.11"/>
    <type id="secondary_road" priority="2" numLanes="2" speed="13.89"/>

    <edge id=":N0_100_0" function="internal">
        <lane id=":N0_100_0_0" index="0" speed="6.51" length="9.03" shape="101.60,192.80 101.95,195.25 103.00,197.00 104.75,198.05 107.20,198.40"/>
    </edge>
    <edge id=":N0_100_1" function="internal">
        <lane id=":N0_100_1_0" index="0" speed="11.11" length="11.20" shape="101.60,192.80 101.60,204.00"/>
    </edge>
    <edge id=":N0_100_2" function="internal">
        <lane id=":N0_100_2_0" index="0" speed="11.11" length="11.20" shape="96.00,198.40 107.20,198.40"/>
    </edge>
    <edge id=":N0_100_3" function="internal">
        <lane id=":N0_100_3_0" index="0" speed="6.51" length="9.03" shape="96.00,198.40 98.45,198.75 100.20,199.80 101.25,201.55 101.60,204.00"/>
    </edge>
    <edge id=":N0_200_0" function="internal">
        <lane id=":N0_200_0_0" index="0" speed="6.51" length="9.03" shape="101.60,289.60 101.95,292.05 103.00,293.80 104.75,294.85 107.20,295.20"/>
        <lane id=":N0_200_0_1" index="1" speed="7.33" length="11.73" shape="101.60,289.60 101.95,293.45 103.00,296.20 104.75,297.85 107.20,298.40"/>
    </edge>
    <edge id=":N0_200_2" function="internal">
        <lane id=":N0_200_2_0" index="0" speed="11.11" length="14.40" shape="101.60,289.60 101.60,304.00"/>
    </edge>
    <edge id=":N0_300_0" function="internal">
        <lane id=":N0_300_0_0" index="0" speed="6.51" length="9.03" shape="101.60,392.80 101.95,395.25 103.00,397.00 104.75,398.05 107.20,398.40"/>
    </edge>
    <edge id=":N0_300_1" function="internal">
        <lane id=":N0_300_1_0" index="0" speed="11.11" length="11.20" shape="101.60,392.80 101.60,404.00"/>
    </edge>
    <edge id=":N0_400_0" function="internal">
        <lane id=":N0_400_0_0" index="0" speed="6.51" length="9.03" shape="101.60,486.40 101.95,488.85 103.00,490.60 104.75,491.65 107.20,492.00"/>
        <lane id=":N0_400_0_1" index="1" speed="7.33" length="11.73" shape="101.60,486.40 101.95,490.25 103.00,493.00 104.75,494.65 107.20,495.20"/>
        <lane id=":N0_400_0_2" index="2" speed="8.10" length="14.57" shape="101.60,486.40 101.95,491.65 103.00,495.40 104.75,497.65 107.20,498.40"/>
    </edge>
    <edge id=":N0_400_3" function="internal">
        <lane id=":N0_400_3_0" index="0" speed="11.11" length="17.60" shape="101.60,486.40 101.60,504.00"/>
    </edge>
    <edge id=":N0_500_0" function="internal">
        <lane id=":N0_500_0_0" index="0" speed="6.51" length="9.03" shape="101.60,592.80 101.95,595.25 103.00,597.00 104.75,598.05 107.20,598.40"/>
    </edge>
    <edge id=":N0_500_1" function="internal">
        <lane id=":N0_500_1_0" index="0" speed="11.11" length="11.20" shape="101.60,592.80 101.60,604.00"/>
    </edge>
    <edge id=":N0_600_0" function="internal">
        <lane id=":N0_600_0_0" index="0" speed="6.51" length="9.03" shape="101.60,689.60 101.95,692.05 103.00,693.80 104.75,694.85 107.20,695.20"/>
    </edge>
    <edge id=":N0_600_1" function="internal">
        <lane id=":N0_600_1_0" index="0" speed="11.11" length="14.40" shape="101.60,689.60 101.60,704.00"/>
    </edge>
    <edge id=":N0_600_2" function="internal">
        <lane id=":N0_600_2_0" index="0" speed="12.50" length="11.49" shape="96.00,698.40 99.04,697.90 101.29,696.80 103.70,695.70 107.20,695.20"/>
        <lane id=":N0_600_2_1" index="1" speed="12.50" length="11.49" shape="96.00,698.40 107.20,698.40"/>
    </edge>
    <edge id=":N0_600_4" function="internal">
        <lane id=":N0_600_4_0" index="0" speed="6.51" length="9.03" shape="96.00,698.40 98.45,698.75 100.20,699.80 101.25,701.55 101.60,704.00"/>
    </edge>
    <edge id=":N0_700_0" function="internal">
        <lane id=":N0_700_0_0" index="0" speed="3.90" length="2.58" shape="101.60,796.80 101.70,797.50 102.00,798.00 102.50,798.30 103.20,798.40"/>
    </edge>
    <edge id=":N100_0_0" function="internal">
        <lane id=":N100_0_0_0" index="0" speed="6.51" length="9.03" shape="192.80,98.40 195.25,98.05 197.00,97.00 198.05,95.25 198.40,92.80"/>
    </edge>
    <edge id=":N100_0_1" function="internal">
        <lane id=":N100_0_1_0" index="0" speed="11.11" length="14.40" shape="192.80,98.40 207.20,98.40"/>
    </edge>
    <edge id=":N100_0_2" function="internal">
        <lane id=":N100_0_2_0" index="0" speed="7.33" length="11.73" shape="192.80,98.40 196.65,98.75 199.40,99.80 201.05,101.55 201.60,104.00"/>
    </edge>
    <edge id=":N100_100_0" function="internal">
        <lane id=":N100_100_0_0" index="0" speed="6.51" length="9.03" shape="201.60,192.80 201.95,195.25 203.00,197.00 204.75,198.05 207.20,198.40"/>
    </edge>
    <edge id=":N100_100_1" function="internal">
        <lane id=":N100_100_1_0" index="0" speed="11.11" length="11.20" shape="201.60,192.80 201.60,204.00"/>
    </edge>
    <edge id=":N100_100_2" function="internal">
        <lane id=":N100_100_2_0" index="0" speed="11.11" length="11.20" shape="196.00,198.40 207.20,198.40"/>
    </edge>
    <edge id=":N100_100_3" function="internal">
        <lane id=":N100_100_3_0" index="0" speed="6.51" length="9.03" shape="196.00,198.40 198.45,198.75 200.20,199.80 201.25,201.55 201.60,204.00"/>
    </edge>
    <edge id=":N100_200_0" function="internal">
        <lane id=":N100_200_0_0" index="0" speed="6.51" length="9.03" shape="201.60,289.60 201.95,292.05 203.00,293.80 204.75,294.85 207.20,295.20"/>
    </edge>
    <edge id=":N100_200_1" function="internal">
        <lane id=":N100_200_1_0" index="0" speed="11.11" length="14.40" shape="201.60,289.60 201.60,304.00"/>
    </edge>
    <edge id=":N100_200_2" function="internal">
        <lane id=":N100_200_2_0" index="0" speed="13.89" length="11.20" shape="196.00,295.20 207.20,295.20"/>
        <lane id=":N100_200_2_1" index="1" speed="13.89" length="11.20" shape="196.00,298.40 207.20,298.40"/>
    </edge>
    <edge id=":N100_200_4" function="internal">
        <lane id=":N100_200_4_0" index="0" speed="6.51" length="9.03" shape="196.00,298.40 198.45,298.75 200.20,299.80 201.25,301.55 201.60,304.00"/>
    </edge>
    <edge id=":N100_300_0" function="internal">
        <lane id=":N100_300_0_0" index="0" speed="6.51" length="9.03" shape="201.60,392.80 201.95,395.25 203.00,397.00 204.75,398.05 207.20,398.40"/>
    </edge>
    <edge id=":N100_300_1" function="internal">
        <lane id=":N100_300_1_0" index="0" speed="11.11" length="11.20" shape="201.60,392.80 201.60,404.00"/>
    </edge>
    <edge id=":N100_300_2" function="internal">
        <lane id=":N100_300_2_0" index="0" speed="11.11" length="11.20" shape="196.00,398.40 207.20,398.40"/>
    </edge>
    <edge id=":N100_300_3" function="internal">
        <lane id=":N100_300_3_0" index="0" speed="6.51" length="9.03" shape="196.00,398.40 198.45,398.75 200.20,399.80 201.25,401.55 201.60,404.00"/>
    </edge>
    <edge id=":N100_400_0" function="internal">
        <lane id=":N100_400_0_0" index="0" speed="6.51" length="9.03" shape="201.60,486.40 201.95,488.85 203.00,490.60 204.75,491.65 207.20,492.00"/>
    </edge>
    <edge id=":N100_400_1" function="internal">
        <lane id=":N100_400_1_0" index="0" speed="11.11" length="17.60" shape="201.60,486.40 201.60,504.00"/>
    </edge>
    <edge id=":N100_400_2" function="internal">
        <lane id=":N100_400_2_0" index="0" speed="16.67" length="11.20" shape="196.00,492.00 207.20,492.00"/>
        <lane id=":N100_400_2_1" index="1" speed="16.67" length="11.20" shape="196.00,495.20 207.20,495.20"/>
        <lane id=":N100_400_2_2" index="2" speed="16.67" length="11.20" shape="196.00,498.40 207.20,498.40"/>
    </edge>
    <edge id=":N100_400_5" function="internal">
        <lane id=":N100_400_5_0" index="0" speed="6.51" length="9.03" shape="196.00,498.40 198.45,498.75 200.20,499.80 201.25,501.55 201.60,504.00"/>
    </edge>
    <edge id=":N100_500_0" function="internal">
        <lane id=":N100_500_0_0" index="0" speed="6.51" length="9.03" shape="201.60,592.80 201.95,595.25 203.00,597.00 204.75,598.05 207.20,598.40"/>
    </edge>
    <edge id=":N100_500_1" function="internal">
        <lane id=":N100_500_1_0" index="0" speed="11.11" length="11.20" shape="201.60,592.80 201.60,604.00"/>
    </edge>
    <edge id=":N100_500_2" function="internal">
        <lane id=":N100_500_2_0" index="0" speed="11.11" length="11.20" shape="196.00,598.40 207.20,598.40"/>
    </edge>
    <edge id=":N100_500_3" function="internal">
        <lane id=":N100_500_3_0" index="0" speed="6.51" length="9.03" shape="196.00,598.40 198.45,598.75 200.20,599.80 201.25,601.55 201.60,604.00"/>
    </edge>
    <edge id=":N100_600_0" function="internal">
        <lane id=":N100_600_0_0" index="0" speed="6.51" length="9.03" shape="201.60,689.60 201.95,692.05 203.00,693.80 204.75,694.85 207.20,695.20"/>
    </edge>
    <edge id=":N100_600_1" function="internal">
        <lane id=":N100_600_1_0" index="0" speed="11.11" length="14.40" shape="201.60,689.60 201.60,704.00"/>
    </edge>
    <edge id=":N100_600_2" function="internal">
        <lane id=":N100_600_2_0" index="0" speed="13.89" length="11.20" shape="196.00,695.20 207.20,695.20"/>
        <lane id=":N100_600_2_1" index="1" speed="13.89" length="11.20" shape="196.00,698.40 207.20,698.40"/>
    </edge>
    <edge id=":N100_600_4" function="internal">
        <lane id=":N100_600_4_0" index="0" speed="6.51" length="9.03" shape="196.00,698.40 198.45,698.75 200.20,699.80 201.25,701.55 201.60,704.00"/>
    </edge>
    <edge id=":N100_700_0" function="internal">
        <lane id=":N100_700_0_0" index="0" speed="6.51" length="9.03" shape="201.60,792.80 201.95,795.25 203.00,797.00 204.75,798.05 207.20,798.40"/>
    </edge>
    <edge id=":N100_700_1" function="internal">
        <lane id=":N100_700_1_0" index="0" speed="11.11" length="11.20" shape="201.60,792.80 201.60,804.00"/>
    </edge>
    <edge id=":N100_700_2" function="internal">
        <lane id=":N100_700_2_0" index="0" speed="11.11" length="11.20" shape="196.00,798.40 207.20,798.40"/>
    </edge>
    <edge id=":N100_700_3" function="internal">
        <lane id=":N100_700_3_0" index="0" speed="6.51" length="9.03" shape="196.00,798.40 198.45,798.75 200.20,799.80 201.25,801.55 201.60,804.00"/>
    </edge>
    <edge id=":N100_800_0" function="internal">
        <lane id=":N100_800_0_0" index="0" speed="11.11" length="0.10" shape="200.00,898.40 200.00,898.40"/>
    </edge>
    <edge id=":N200_0_0" function="internal">
        <lane id=":N200_0_0_0" index="0" speed="11.11" length="14.40" shape="296.00,98.40 310.40,98.40"/>
    </edge>
    <edge id=":N200_0_1" function="internal">
        <lane id=":N200_0_1_0" index="0" speed="7.33" length="11.73" shape="296.00,98.40 299.85,98.75 302.60,99.80 304.25,101.55 304.80,104.00"/>
        <lane id=":N200_0_1_1" index="1" speed="6.51" length="9.03" shape="296.00,98.40 298.45,98.75 300.20,99.80 301.25,101.55 301.60,104.00"/>
    </edge>
    <edge id=":N200_100_0" function="internal">
        <lane id=":N200_100_0_0" index="0" speed="6.51" length="9.03" shape="304.80,192.80 305.15,195.25 306.20,197.00 307.95,198.05 310.40,198.40"/>
    </edge>
    <edge id=":N200_100_1" function="internal">
        <lane id=":N200_100_1_0" index="0" speed="13.89" length="11.20" shape="304.80,192.80 304.80,204.00"/>
        <lane id=":N200_100_1_1" index="1" speed="13.89" length="11.20" shape="301.60,192.80 301.60,204.00"/>
    </edge>
    <edge id=":N200_100_3" function="internal">
        <lane id=":N200_100_3_0" index="0" speed="11.11" length="14.40" shape="296.00,198.40 310.40,198.40"/>
    </edge>
    <edge id=":N200_100_4" function="internal">
        <lane id=":N200_100_4_0" index="0" speed="6.51" length="9.03" shape="296.00,198.40 298.45,198.75 300.20,199.80 301.25,201.55 301.60,204.00"/>
    </edge>
    <edge id=":N200_200_0" function="internal">
        <lane id=":N200_200_0_0" index="0" speed="6.51" length="9.03" shape="304.80,289.60 305.15,292.05 306.20,293.80 307.95,294.85 310.40,295.20"/>
    </edge>
    <edge id=":N200_200_1" function="internal">
        <lane id=":N200_200_1_0" index="0" speed="13.89" length="14.40" shape="304.80,289.60 304.80,304.00"/>
        <lane id=":N200_200_1_1" index="1" speed="13.89" length="14.40" shape="301.60,289.60 301.60,304.00"/>
    </edge>
    <edge id=":N200_200_3" function="internal">
        <lane id=":N200_200_3_0" index="0" speed="13.89" length="14.40" shape="296.00,295.20 310.40,295.20"/>
        <lane id=":N200_200_3_1" index="1" speed="13.89" length="14.40" shape="296.00,298.40 310.40,298.40"/>
    </edge>
    <edge id=":N200_200_5" function="internal">
        <lane id=":N200_200_5_0" index="0" speed="6.51" length="4.11" shape="296.00,298.40 298.45,298.75 299.85,299.59"/>
    </edge>
    <edge id=":N200_200_6" function="internal">
        <lane id=":N200_200_6_0" index="0" speed="6.51" length="4.93" shape="299.85,299.59 300.20,299.80 301.25,301.55 301.60,304.00"/>
    </edge>
    <edge id=":N200_300_0" function="internal">
        <lane id=":N200_300_0_0" index="0" speed="6.51" length="9.03" shape="304.80,392.80 305.15,395.25 306.20,397.00 307.95,398.05 310.40,398.40"/>
    </edge>
    <edge id=":N200_300_1" function="internal">
        <lane id=":N200_300_1_0" index="0" speed="13.89" length="11.20" shape="304.80,392.80 304.80,404.00"/>
        <lane id=":N200_300_1_1" index="1" speed="13.89" length="11.20" shape="301.60,392.80 301.60,404.00"/>
    </edge>
    <edge id=":N200_300_3" function="internal">
        <lane id=":N200_300_3_0" index="0" speed="11.11" length="14.40" shape="296.00,398.40 310.40,398.40"/>
    </edge>
    <edge id=":N200_300_4" function="internal">
        <lane id=":N200_300_4_0" index="0" speed="6.51" length="9.03" shape="296.00,398.40 298.45,398.75 300.20,399.80 301.25,401.55 301.60,404.00"/>
    </edge>
    <edge id=":N200_400_0" function="internal">
        <lane id=":N200_400_0_0" index="0" speed="6.51" length="9.03" shape="304.80,486.40 305.15,488.85 306.20,490.60 307.95,491.65 310.40,492.00"/>
        <lane id=":N200_400_0_1" index="1" speed="8.00" length="14.19" shape="301.60,486.40 302.15,490.25 303.80,493.00 306.55,494.65 310.40,495.20"/>
    </edge>
    <edge id=":N200_400_2" function="internal">
        <lane id=":N200_400_2_0" index="0" speed="13.89" length="17.79" shape="301.60,486.40 302.10,491.67 303.20,495.20 304.30,498.73 304.80,504.00"/>
        <lane id=":N200_400_2_1" index="1" speed="13.89" length="17.79" shape="301.60,486.40 301.60,504.00"/>
    </edge>
    <edge id=":N200_400_4" function="internal">
        <lane id=":N200_400_4_0" index="0" speed="16.67" length="14.40" shape="296.00,492.00 310.40,492.00"/>
        <lane id=":N200_400_4_1" index="1" speed="16.67" length="14.40" shape="296.00,495.20 310.40,495.20"/>
        <lane id=":N200_400_4_2" index="2" speed="16.67" length="14.40" shape="296.00,498.40 310.40,498.40"/>
    </edge>
    <edge id=":N200_400_7" function="internal">
        <lane id=":N200_400_7_0" index="0" speed="6.51" length="9.03" shape="296.00,498.40 298.45,498.75 300.20,499.80 301.25,501.55 301.60,504.00"/>
    </edge>
    <edge id=":N200_500_0" function="internal">
        <lane id=":N200_500_0_0" index="0" speed="6.51" length="9.03" shape="304.80,592.80 305.15,595.25 306.20,597.00 307.95,598.05 310.40,598.40"/>
    </edge>
    <edge id=":N200_500_1" function="internal">
        <lane id=":N200_500_1_0" index="0" speed="13.89" length="11.20" shape="304.80,592.80 304.80,604.00"/>
        <lane id=":N200_500_1_1" index="1" speed="13.89" length="11.20" shape="301.60,592.80 301.60,604.00"/>
    </edge>
    <edge id=":N200_500_3" function="internal">
        <lane id=":N200_500_3_0" index="0" speed="11.11" length="14.40" shape="296.00,598.40 310.40,598.40"/>
    </edge>
    <edge id=":N200_500_4" function="internal">
        <lane id=":N200_500_4_0" index="0" speed="6.51" length="9.03" shape="296.00,598.40 298.45,598.75 300.20,599.80 301.25,601.55 301.60,604.00"/>
    </edge>
    <edge id=":N200_600_0" function="internal">
        <lane id=":N200_600_0_0" index="0" speed="6.51" length="9.03" shape="304.80,689.60 305.15,692.05 306.20,693.80 307.95,694.85 310.40,695.20"/>
    </edge>
    <edge id=":N200_600_1" function="internal">
        <lane id=":N200_600_1_0" index="0" speed="13.89" length="14.40" shape="304.80,689.60 304.80,704.00"/>
        <lane id=":N200_600_1_1" index="1" speed="13.89" length="14.40" shape="301.60,689.60 301.60,704.00"/>
    </edge>
    <edge id=":N200_600_3" function="internal">
        <lane id=":N200_600_3_0" index="0" speed="13.89" length="14.40" shape="296.00,695.20 310.40,695.20"/>
        <lane id=":N200_600_3_1" index="1" speed="13.89" length="14.40" shape="296.00,698.40 310.40,698.40"/>
    </edge>
    <edge id=":N200_600_5" function="internal">
        <lane id=":N200_600_5_0" index="0" speed="6.51" length="4.11" shape="296.00,698.40 298.45,698.75 299.85,699.59"/>
    </edge>
    <edge id=":N200_600_6" function="internal">
        <lane id=":N200_600_6_0" index="0" speed="6.51" length="4.93" shape="299.85,699.59 300.20,699.80 301.25,701.55 301.60,704.00"/>
    </edge>
    <edge id=":N200_700_0" function="internal">
        <lane id=":N200_700_0_0" index="0" speed="6.51" length="9.03" shape="304.80,792.80 305.15,795.25 306.20,797.00 307.95,798.05 310.40,798.40"/>
    </edge>
    <edge id=":N200_700_1" function="internal">
        <lane id=":N200_700_1_0" index="0" speed="11.11" length="14.40" shape="296.00,798.40 310.40,798.40"/>
    </edge>
    <edge id=":N200_800_0" function="internal">
        <lane id=":N200_800_0_0" index="0" speed="11.11" length="0.10" shape="300.00,898.40 300.00,898.40"/>
    </edge>
    <edge id=":N300_0_0" function="internal">
        <lane id=":N300_0_0_0" index="0" speed="11.11" length="11.20" shape="396.00,98.40 407.20,98.40"/>
    </edge>
    <edge id=":N300_0_1" function="internal">
        <lane id=":N300_0_1_0" index="0" speed="6.51" length="9.03" shape="396.00,98.40 398.45,98.75 400.20,99.80 401.25,101.55 401.60,104.00"/>
    </edge>
    <edge id=":N300_100_0" function="internal">
        <lane id=":N300_100_0_0" index="0" speed="6.51" length="9.03" shape="401.60,192.80 401.95,195.25 403.00,197.00 404.75,198.05 407.20,198.40"/>
    </edge>
    <edge id=":N300_100_1" function="internal">
        <lane id=":N300_100_1_0" index="0" speed="11.11" length="11.20" shape="401.60,192.80 401.60,204.00"/>
    </edge>
    <edge id=":N300_100_2" function="internal">
        <lane id=":N300_100_2_0" index="0" speed="11.11" length="11.20" shape="396.00,198.40 407.20,198.40"/>
    </edge>
    <edge id=":N300_100_3" function="internal">
        <lane id=":N300_100_3_0" index="0" speed="6.51" length="9.03" shape="396.00,198.40 398.45,198.75 400.20,199.80 401.25,201.55 401.60,204.00"/>
    </edge>
    <edge id=":N300_200_0" function="internal">
        <lane id=":N300_200_0_0" index="0" speed="6.51" length="9.03" shape="401.60,289.60 401.95,292.05 403.00,293.80 404.75,294.85 407.20,295.20"/>
    </edge>
    <edge id=":N300_200_1" function="internal">
        <lane id=":N300_200_1_0" index="0" speed="11.11" length="14.40" shape="401.60,289.60 401.60,304.00"/>
    </edge>
    <edge id=":N300_200_2" function="internal">
        <lane id=":N300_200_2_0" index="0" speed="13.89" length="11.20" shape="396.00,295.20 407.20,295.20"/>
        <lane id=":N300_200_2_1" index="1" speed="13.89" length="11.20" shape="396.00,298.40 407.20,298.40"/>
    </edge>
    <edge id=":N300_200_4" function="internal">
        <lane id=":N300_200_4_0" index="0" speed="6.51" length="9.03" shape="396.00,298.40 398.45,298.75 400.20,299.80 401.25,301.55 401.60,304.00"/>
    </edge>
    <edge id=":N300_300_0" function="internal">
        <lane id=":N300_300_0_0" index="0" speed="6.51" length="9.03" shape="401.60,392.80 401.95,395.25 403.00,397.00 404.75,398.05 407.20,398.40"/>
    </edge>
    <edge id=":N300_300_1" function="internal">
        <lane id=":N300_300_1_0" index="0" speed="11.11" length="11.20" shape="401.60,392.80 401.60,404.00"/>
    </edge>
    <edge id=":N300_300_2" function="internal">
        <lane id=":N300_300_2_0" index="0" speed="11.11" length="11.20" shape="396.00,398.40 407.20,398.40"/>
    </edge>
    <edge id=":N300_300_3" function="internal">
        <lane id=":N300_300_3_0" index="0" speed="6.51" length="9.03" shape="396.00,398.40 398.45,398.75 400.20,399.80 401.25,401.55 401.60,404.00"/>
    </edge>
    <edge id=":N300_400_0" function="internal">
        <lane id=":N300_400_0_0" index="0" speed="6.51" length="9.03" shape="401.60,486.40 401.95,488.85 403.00,490.60 404.75,491.65 407.20,492.00"/>
    </edge>
    <edge id=":N300_400_1" function="internal">
        <lane id=":N300_400_1_0" index="0" speed="11.11" length="17.60" shape="401.60,486.40 401.60,504.00"/>
    </edge>
    <edge id=":N300_400_2" function="internal">
        <lane id=":N300_400_2_0" index="0" speed="16.67" length="11.20" shape="396.00,492.00 407.20,492.00"/>
        <lane id=":N300_400_2_1" index="1" speed="16.67" length="11.20" shape="396.00,495.20 407.20,495.20"/>
        <lane id=":N300_400_2_2" index="2" speed="16.67" length="11.20" shape="396.00,498.40 407.20,498.40"/>
    </edge>
    <edge id=":N300_400_5" function="internal">
        <lane id=":N300_400_5_0" index="0" speed="6.51" length="9.03" shape="396.00,498.40 398.45,498.75 400.20,499.80 401.25,501.55 401.60,504.00"/>
    </edge>
    <edge id=":N300_500_0" function="internal">
        <lane id=":N300_500_0_0" index="0" speed="6.51" length="9.03" shape="401.60,592.80 401.95,595.25 403.00,597.00 404.75,598.05 407.20,598.40"/>
    </edge>
    <edge id=":N300_500_1" function="internal">
        <lane id=":N300_500_1_0" index="0" speed="11.11" length="11.20" shape="401.60,592.80 401.60,604.00"/>
    </edge>
    <edge id=":N300_500_2" function="internal">
        <lane id=":N300_500_2_0" index="0" speed="11.11" length="11.20" shape="396.00,598.40 407.20,598.40"/>
    </edge>
    <edge id=":N300_500_3" function="internal">
        <lane id=":N300_500_3_0" index="0" speed="6.51" length="9.03" shape="396.00,598.40 398.45,598.75 400.20,599.80 401.25,601.55 401.60,604.00"/>
    </edge>
    <edge id=":N300_600_0" function="internal">
        <lane id=":N300_600_0_0" index="0" speed="6.51" length="9.03" shape="401.60,689.60 401.95,692.05 403.00,693.80 404.75,694.85 407.20,695.20"/>
    </edge>
    <edge id=":N300_600_1" function="internal">
        <lane id=":N300_600_1_0" index="0" speed="11.11" length="14.40" shape="401.60,689.60 401.60,704.00"/>
    </edge>
    <edge id=":N300_600_2" function="internal">
        <lane id=":N300_600_2_0" index="0" speed="13.89" length="11.20" shape="396.00,695.20 407.20,695.20"/>
        <lane id=":N300_600_2_1" index="1" speed="13.89" length="11.20" shape="396.00,698.40 407.20,698.40"/>
    </edge>
    <edge id=":N300_600_4" function="internal">
        <lane id=":N300_600_4_0" index="0" speed="6.51" length="9.03" shape="396.00,698.40 398.45,698.75 400.20,699.80 401.25,701.55 401.60,704.00"/>
    </edge>
    <edge id=":N300_700_0" function="internal">
        <lane id=":N300_700_0_0" index="0" speed="6.51" length="9.03" shape="401.60,792.80 401.95,795.25 403.00,797.00 404.75,798.05 407.20,798.40"/>
    </edge>
    <edge id=":N300_700_1" function="internal">
        <lane id=":N300_700_1_0" index="0" speed="11.11" length="11.20" shape="396.00,798.40 407.20,798.40"/>
    </edge>
    <edge id=":N300_800_0" function="internal">
        <lane id=":N300_800_0_0" index="0" speed="11.11" length="0.10" shape="400.00,898.40 400.00,898.40"/>
    </edge>
    <edge id=":N400_0_0" function="internal">
        <lane id=":N400_0_0_0" index="0" speed="11.11" length="11.20" shape="496.00,98.40 507.20,98.40"/>
    </edge>
    <edge id=":N400_0_1" function="internal">
        <lane id=":N400_0_1_0" index="0" speed="6.51" length="9.03" shape="496.00,98.40 498.45,98.75 500.20,99.80 501.25,101.55 501.60,104.00"/>
    </edge>
    <edge id=":N400_100_0" function="internal">
        <lane id=":N400_100_0_0" index="0" speed="6.51" length="9.03" shape="501.60,192.80 501.95,195.25 503.00,197.00 504.75,198.05 507.20,198.40"/>
    </edge>
    <edge id=":N400_100_1" function="internal">
        <lane id=":N400_100_1_0" index="0" speed="11.11" length="11.20" shape="501.60,192.80 501.60,204.00"/>
    </edge>
    <edge id=":N400_100_2" function="internal">
        <lane id=":N400_100_2_0" index="0" speed="11.11" length="11.20" shape="496.00,198.40 507.20,198.40"/>
    </edge>
    <edge id=":N400_100_3" function="internal">
        <lane id=":N400_100_3_0" index="0" speed="6.51" length="9.03" shape="496.00,198.40 498.45,198.75 500.20,199.80 501.25,201.55 501.60,204.00"/>
    </edge>
    <edge id=":N400_200_0" function="internal">
        <lane id=":N400_200_0_0" index="0" speed="6.51" length="9.03" shape="501.60,289.60 501.95,292.05 503.00,293.80 504.75,294.85 507.20,295.20"/>
    </edge>
    <edge id=":N400_200_1" function="internal">
        <lane id=":N400_200_1_0" index="0" speed="11.11" length="14.40" shape="501.60,289.60 501.60,304.00"/>
    </edge>
    <edge id=":N400_200_2" function="internal">
        <lane id=":N400_200_2_0" index="0" speed="13.89" length="11.20" shape="496.00,295.20 507.20,295.20"/>
        <lane id=":N400_200_2_1" index="1" speed="13.89" length="11.20" shape="496.00,298.40 507.20,298.40"/>
    </edge>
    <edge id=":N400_200_4" function="internal">
        <lane id=":N400_200_4_0" index="0" speed="6.51" length="9.03" shape="496.00,298.40 498.45,298.75 500.20,299.80 501.25,301.55 501.60,304.00"/>
    </edge>
    <edge id=":N400_300_0" function="internal">
        <lane id=":N400_300_0_0" index="0" speed="6.51" length="9.03" shape="501.60,392.80 501.95,395.25 503.00,397.00 504.75,398.05 507.20,398.40"/>
    </edge>
    <edge id=":N400_300_1" function="internal">
        <lane id=":N400_300_1_0" index="0" speed="11.11" length="11.20" shape="501.60,392.80 501.60,404.00"/>
    </edge>
    <edge id=":N400_300_2" function="internal">
        <lane id=":N400_300_2_0" index="0" speed="11.11" length="11.20" shape="496.00,398.40 507.20,398.40"/>
    </edge>
    <edge id=":N400_300_3" function="internal">
        <lane id=":N400_300_3_0" index="0" speed="6.51" length="9.03" shape="496.00,398.40 498.45,398.75 500.20,399.80 501.25,401.55 501.60,404.00"/>
    </edge>
    <edge id=":N400_400_0" function="internal">
        <lane id=":N400_400_0_0" index="0" speed="6.51" length="9.03" shape="501.60,486.40 501.95,488.85 503.00,490.60 504.75,491.65 507.20,492.00"/>
    </edge>
    <edge id=":N400_400_1" function="internal">
        <lane id=":N400_400_1_0" index="0" speed="11.11" length="17.60" shape="501.60,486.40 501.60,504.00"/>
    </edge>
    <edge id=":N400_400_2" function="internal">
        <lane id=":N400_400_2_0" index="0" speed="16.67" length="11.20" shape="496.00,492.00 507.20,492.00"/>
        <lane id=":N400_400_2_1" index="1" speed="16.67" length="11.20" shape="496.00,495.20 507.20,495.20"/>
        <lane id=":N400_400_2_2" index="2" speed="16.67" length="11.20" shape="496.00,498.40 507.20,498.40"/>
    </edge>
    <edge id=":N400_400_5" function="internal">
        <lane id=":N400_400_5_0" index="0" speed="6.51" length="9.03" shape="496.00,498.40 498.45,498.75 500.20,499.80 501.25,501.55 501.60,504.00"/>
    </edge>
    <edge id=":N400_500_0" function="internal">
        <lane id=":N400_500_0_0" index="0" speed="6.51" length="9.03" shape="501.60,592.80 501.95,595.25 503.00,597.00 504.75,598.05 507.20,598.40"/>
    </edge>
    <edge id=":N400_500_1" function="internal">
        <lane id=":N400_500_1_0" index="0" speed="11.11" length="11.20" shape="501.60,592.80 501.60,604.00"/>
    </edge>
    <edge id=":N400_500_2" function="internal">
        <lane id=":N400_500_2_0" index="0" speed="11.11" length="11.20" shape="496.00,598.40 507.20,598.40"/>
    </edge>
    <edge id=":N400_500_3" function="internal">
        <lane id=":N400_500_3_0" index="0" speed="6.51" length="9.03" shape="496.00,598.40 498.45,598.75 500.20,599.80 501.25,601.55 501.60,604.00"/>
    </edge>
    <edge id=":N400_600_0" function="internal">
        <lane id=":N400_600_0_0" index="0" speed="6.51" length="9.03" shape="501.60,689.60 501.95,692.05 503.00,693.80 504.75,694.85 507.20,695.20"/>
    </edge>
    <edge id=":N400_600_1" function="internal">
        <lane id=":N400_600_1_0" index="0" speed="11.11" length="14.40" shape="501.60,689.60 501.60,704.00"/>
    </edge>
    <edge id=":N400_600_2" function="internal">
        <lane id=":N400_600_2_0" index="0" speed="13.89" length="11.20" shape="496.00,695.20 507.20,695.20"/>
        <lane id=":N400_600_2_1" index="1" speed="13.89" length="11.20" shape="496.00,698.40 507.20,698.40"/>
    </edge>
    <edge id=":N400_600_4" function="internal">
        <lane id=":N400_600_4_0" index="0" speed="6.51" length="9.03" shape="496.00,698.40 498.45,698.75 500.20,699.80 501.25,701.55 501.60,704.00"/>
    </edge>
    <edge id=":N400_700_0" function="internal">